<?xml version='1.0' encoding='UTF-8'?>
<routes>
  <route id="0" town="Town04">
    <waypoint x="5.073497" y="58.045986" z="0.001679" pitch="-0.000888" yaw="-89.297180" roll="0.000000"/>
    <waypoint x="5.264010" y="38.002098" z="0.001732" pitch="0.018366" yaw="-89.728767" roll="-0.000214"/>
    <waypoint x="5.111202" y="17.894278" z="0.001356" pitch="0.082290" yaw="-91.002922" roll="-0.000336"/>
    <waypoint x="4.644730" y="-3.013716" z="0.001504" pitch="0.057025" yaw="-91.593102" roll="0.001277"/>
    <waypoint x="4.370882" y="-23.100277" z="0.002261" pitch="-0.071840" yaw="-89.876152" roll="-0.013367"/>
    <waypoint x="4.411718" y="-43.527187" z="0.001889" pitch="-0.008422" yaw="-89.792686" roll="0.001173"/>
    <waypoint x="4.380355" y="-63.816841" z="0.001741" pitch="0.016713" yaw="-90.255119" roll="-0.000854"/>
    <waypoint x="4.330027" y="-84.066940" z="0.001754" pitch="0.014569" yaw="-90.043175" roll="-0.000305"/>
    <waypoint x="4.249340" y="-104.402130" z="0.001684" pitch="0.026426" yaw="-90.400322" roll="0.001653"/>
    <waypoint x="4.081155" y="-124.666763" z="0.001729" pitch="0.018715" yaw="-90.529778" roll="0.000177"/>
    <waypoint x="3.937464" y="-145.202698" z="0.001863" pitch="-0.004084" yaw="-90.167747" roll="-0.004089"/>
    <waypoint x="3.796473" y="-165.415878" z="0.001865" pitch="-0.004549" yaw="-90.407013" roll="-0.004303"/>
    <waypoint x="3.833214" y="-185.924774" z="0.002008" pitch="-0.028844" yaw="-89.604240" roll="-0.003143"/>
    <waypoint x="4.005614" y="-206.582397" z="0.001963" pitch="-0.021269" yaw="-89.490479" roll="-0.001282"/>
    <waypoint x="4.415126" y="-226.672546" z="0.001857" pitch="-0.003142" yaw="-86.373344" roll="-0.018768"/>
    <waypoint x="7.244013" y="-247.078156" z="0.001675" pitch="0.027819" yaw="-78.642128" roll="-0.030426"/>
    <waypoint x="12.160288" y="-266.521118" z="0.001973" pitch="-0.022922" yaw="-72.006065" roll="-0.040314"/>
    <waypoint x="19.385988" y="-285.248322" z="0.002106" pitch="-0.045530" yaw="-66.997047" roll="-0.013824"/>
    <waypoint x="28.570271" y="-303.092133" z="0.001651" pitch="0.031876" yaw="-58.691322" roll="-0.036774"/>
    <waypoint x="40.189365" y="-319.453247" z="0.001747" pitch="0.015559" yaw="-50.381092" roll="-0.058716"/>
    <waypoint x="54.359253" y="-334.134827" z="0.001834" pitch="0.000854" yaw="-41.812820" roll="-0.059692"/>
    <waypoint x="70.721916" y="-346.805939" z="0.001844" pitch="-0.000854" yaw="-33.854630" roll="-0.056305"/>
    <waypoint x="88.553154" y="-357.219177" z="0.001865" pitch="-0.004460" yaw="-27.574116" roll="-0.035065"/>
    <waypoint x="107.190079" y="-365.525238" z="0.001941" pitch="-0.017485" yaw="-20.481075" roll="-0.045746"/>
    <waypoint x="126.822388" y="-371.190369" z="0.001895" pitch="-0.009521" yaw="-11.629687" roll="-0.046173"/>
    <waypoint x="146.883545" y="-373.827301" z="0.001877" pitch="-0.006625" yaw="-3.712983" roll="-0.030365"/>
    <waypoint x="167.230392" y="-374.591125" z="0.001865" pitch="-0.004672" yaw="-0.933380" roll="-0.009552"/>
    <waypoint x="187.618164" y="-374.646118" z="0.001732" pitch="0.017957" yaw="0.106647" roll="-0.002533"/>
    <waypoint x="208.374100" y="-374.505920" z="0.001749" pitch="0.015020" yaw="0.176881" roll="0.006227"/>
    <waypoint x="228.729919" y="-374.442535" z="0.001971" pitch="-0.022861" yaw="-0.211975" roll="0.005130"/>
    <waypoint x="248.768585" y="-374.500336" z="0.001758" pitch="0.013496" yaw="1.107844" roll="-0.020966"/>
    <waypoint x="268.877014" y="-373.475098" z="0.001971" pitch="-0.022704" yaw="4.898704" roll="-0.029541"/>
    <waypoint x="288.793121" y="-369.348785" z="0.001588" pitch="0.042477" yaw="15.703445" roll="-0.024048"/>
    <waypoint x="307.875793" y="-362.192657" z="0.001698" pitch="0.023769" yaw="25.051800" roll="-0.055725"/>
    <waypoint x="326.171082" y="-352.707703" z="0.002223" pitch="-0.065672" yaw="32.072586" roll="-0.085358"/>
    <waypoint x="342.417969" y="-340.829712" z="0.001755" pitch="0.014138" yaw="39.701145" roll="-0.036652"/>
    <waypoint x="356.888000" y="-326.738007" z="0.001821" pitch="0.002821" yaw="48.414288" roll="-0.041992"/>
    <waypoint x="369.188782" y="-310.873688" z="0.001831" pitch="0.001250" yaw="56.417530" roll="-0.049133"/>
    <waypoint x="379.005707" y="-293.304565" z="0.001894" pitch="-0.009706" yaw="64.392136" roll="-0.031647"/>
    <waypoint x="386.205231" y="-274.618195" z="0.001878" pitch="-0.006776" yaw="72.937416" roll="-0.030579"/>
    <waypoint x="390.752106" y="-254.727646" z="0.001865" pitch="-0.004699" yaw="80.787643" roll="-0.023285"/>
    <waypoint x="392.579285" y="-234.347183" z="0.001728" pitch="0.018517" yaw="88.337578" roll="-0.024597"/>
    <waypoint x="392.665314" y="-213.996857" z="0.001760" pitch="0.013059" yaw="90.305977" roll="-0.004333"/>
    <waypoint x="392.500488" y="-193.413589" z="0.001782" pitch="0.009262" yaw="90.513939" roll="0.000000"/>
    <waypoint x="392.321320" y="-173.373749" z="0.001797" pitch="0.006721" yaw="90.584358" roll="-0.001465"/>
    <waypoint x="392.160339" y="-153.069824" z="0.001808" pitch="0.004952" yaw="90.226006" roll="0.002079"/>
    <waypoint x="392.036255" y="-132.839874" z="0.001816" pitch="0.003640" yaw="90.499832" roll="-0.003235"/>
    <waypoint x="391.820709" y="-112.080650" z="0.001822" pitch="0.002671" yaw="90.629875" roll="-0.000946"/>
    <waypoint x="391.575806" y="-91.778015" z="0.001860" pitch="-0.003907" yaw="90.717697" roll="-0.000488"/>
    <waypoint x="391.326477" y="-71.756378" z="0.002145" pitch="-0.052340" yaw="90.700752" roll="-0.000427"/>
    <waypoint x="391.121490" y="-51.735439" z="0.001582" pitch="0.069463" yaw="89.852715" roll="0.004690"/>
    <waypoint x="391.215485" y="-31.471779" z="0.002141" pitch="-0.051609" yaw="90.220390" roll="-0.000977"/>
    <waypoint x="387.825134" y="-11.469523" z="0.001415" pitch="0.077980" yaw="111.363808" roll="-0.075378"/>
    <waypoint x="377.237305" y="5.837660" z="0.010927" pitch="0.002254" yaw="131.969147" roll="-0.173218"/>
    <waypoint x="360.723969" y="17.129040" z="0.144547" pitch="0.722525" yaw="158.736710" roll="-0.304993"/>
    <waypoint x="340.912964" y="20.279861" z="0.416540" pitch="1.242002" yaw="179.857361" roll="-0.093994"/>
    <waypoint x="320.804688" y="20.477499" z="0.901943" pitch="1.656430" yaw="175.242844" roll="-0.075104"/>
    <waypoint x="300.651123" y="21.400339" z="1.570853" pitch="2.119319" yaw="-176.630219" roll="-0.023956"/>
    <waypoint x="280.411682" y="20.704714" z="2.428382" pitch="2.732779" yaw="-179.143646" roll="-0.027435"/>
    <waypoint x="259.887268" y="19.706398" z="3.487641" pitch="3.314090" yaw="-176.545074" roll="0.135081"/>
    <waypoint x="239.821793" y="18.850922" z="4.677896" pitch="3.487371" yaw="-178.809814" roll="0.045457"/>
    <waypoint x="219.807053" y="18.413273" z="5.880217" pitch="3.471327" yaw="-178.869873" roll="0.017413"/>
    <waypoint x="198.501053" y="18.306089" z="7.136643" pitch="3.212094" yaw="179.727081" roll="-0.053680"/>
    <waypoint x="178.230194" y="18.243330" z="8.182708" pitch="2.718647" yaw="-178.772552" roll="-0.027191"/>
    <waypoint x="157.220901" y="17.716225" z="9.092813" pitch="2.238956" yaw="-178.348755" roll="0.019136"/>
    <waypoint x="136.602554" y="17.172113" z="9.813826" pitch="1.747941" yaw="-179.080963" roll="0.020055"/>
    <waypoint x="116.268539" y="17.012865" z="10.350472" pitch="1.152540" yaw="179.928879" roll="-0.196930"/>
    <waypoint x="95.937546" y="16.920996" z="10.699254" pitch="0.848303" yaw="-179.051834" roll="-0.063995"/>
    <waypoint x="74.765205" y="16.543125" z="10.969470" pitch="0.217350" yaw="-179.166077" roll="-0.012909"/>
    <waypoint x="53.870331" y="16.285767" z="10.991752" pitch="0.083690" yaw="-179.462357" roll="0.008763"/>
    <waypoint x="32.544899" y="16.039198" z="10.998419" pitch="0.083690" yaw="-179.209518" roll="-0.005127"/>
    <waypoint x="11.487473" y="15.852310" z="10.999139" pitch="-0.055051" yaw="179.595642" roll="0.040945"/>
    <waypoint x="-8.779502" y="16.019117" z="10.850721" pitch="-0.780452" yaw="178.469711" roll="0.082061"/>
    <waypoint x="-30.056370" y="16.527761" z="10.487166" pitch="-0.944492" yaw="178.333420" roll="0.057105"/>
    <waypoint x="-51.813522" y="17.017864" z="10.113050" pitch="-0.997529" yaw="179.794510" roll="-0.044373"/>
    <waypoint x="-72.853752" y="17.102369" z="9.752540" pitch="-1.086239" yaw="-179.095535" roll="-0.134003"/>
    <waypoint x="-94.364761" y="16.837660" z="9.353141" pitch="-1.169028" yaw="-178.785400" roll="-0.025940"/>
    <waypoint x="-114.567589" y="16.523724" z="8.956070" pitch="-1.407743" yaw="-179.797821" roll="-0.030457"/>
    <waypoint x="-135.555313" y="16.450409" z="8.080067" pitch="-3.078277" yaw="-179.870209" roll="-0.000244"/>
    <waypoint x="-156.797607" y="16.310606" z="6.969930" pitch="-2.911921" yaw="-179.483490" roll="-0.027222"/>
    <waypoint x="-178.126678" y="16.121721" z="5.864088" pitch="-2.897639" yaw="-179.457657" roll="-0.026031"/>
    <waypoint x="-198.725128" y="15.931384" z="4.796273" pitch="-2.901457" yaw="-179.480850" roll="-0.023224"/>
    <waypoint x="-219.307831" y="15.749239" z="3.729383" pitch="-2.915678" yaw="-179.537018" roll="-0.018188"/>
    <waypoint x="-239.621765" y="15.592044" z="2.742904" pitch="-2.649929" yaw="-179.623581" roll="-0.010468"/>
    <waypoint x="-260.933563" y="15.451801" z="1.873376" pitch="-2.262357" yaw="-179.651108" roll="-0.009277"/>
    <waypoint x="-281.396149" y="15.327938" z="1.195323" pitch="-1.797453" yaw="-179.652222" roll="-0.008545"/>
    <waypoint x="-301.623474" y="15.233682" z="0.672858" pitch="-1.266167" yaw="179.823257" roll="0.017234"/>
    <waypoint x="-322.067627" y="15.541645" z="0.296746" pitch="-0.778136" yaw="178.982986" roll="0.021512"/>
    <waypoint x="-342.998871" y="15.914021" z="0.070894" pitch="-0.165441" yaw="179.237152" roll="-0.006470"/>
    <waypoint x="-363.356628" y="16.143080" z="-0.002218" pitch="0.092740" yaw="179.523392" roll="-0.008301"/>
    <waypoint x="-383.566010" y="16.283251" z="-0.002870" pitch="-0.003265" yaw="179.669067" roll="-0.001404"/>
    <waypoint x="-403.849396" y="16.446795" z="0.002106" pitch="-0.029383" yaw="179.218063" roll="0.011467"/>
    <waypoint x="-424.683228" y="16.911245" z="0.002391" pitch="-0.094489" yaw="177.960510" roll="0.021212"/>
    <waypoint x="-445.120300" y="19.463905" z="0.002257" pitch="-0.071778" yaw="164.505981" roll="0.120883"/>
    <waypoint x="-463.593475" y="27.129927" z="0.001540" pitch="0.050188" yaw="149.610016" roll="0.138870"/>
    <waypoint x="-479.486328" y="39.296516" z="0.001622" pitch="0.036159" yaw="133.690033" roll="0.214244"/>
    <waypoint x="-492.234833" y="55.650417" z="0.001653" pitch="0.030941" yaw="119.609299" roll="0.234776"/>
    <waypoint x="-500.444916" y="74.122002" z="0.001798" pitch="0.006202" yaw="104.310944" roll="0.307706"/>
    <waypoint x="-503.483978" y="94.274887" z="0.002038" pitch="-0.034486" yaw="89.840248" roll="0.231629"/>
    <waypoint x="-503.341187" y="114.455124" z="0.002010" pitch="-0.029821" yaw="90.517540" roll="-0.031433"/>
    <waypoint x="-503.620178" y="134.688919" z="0.001708" pitch="0.021618" yaw="90.472771" roll="0.009913"/>
    <waypoint x="-503.728973" y="155.729935" z="0.001691" pitch="0.024411" yaw="90.281242" roll="-0.001068"/>
    <waypoint x="-503.810577" y="176.508026" z="0.001774" pitch="0.010478" yaw="90.145287" roll="0.000984"/>
    <waypoint x="-503.882019" y="197.000900" z="0.001976" pitch="-0.023988" yaw="90.376305" roll="-0.006531"/>
    <waypoint x="-504.210266" y="217.038651" z="0.001903" pitch="-0.011598" yaw="91.806786" roll="-0.019958"/>
    <waypoint x="-504.682709" y="237.836319" z="0.001773" pitch="0.010566" yaw="89.903198" roll="0.039971"/>
    <waypoint x="-503.949310" y="258.357941" z="0.001808" pitch="0.004624" yaw="84.888199" roll="0.082485"/>
    <waypoint x="-501.037994" y="279.061523" z="0.001817" pitch="0.002944" yaw="77.924080" roll="0.105884"/>
    <waypoint x="-495.866394" y="298.471893" z="0.001848" pitch="-0.002288" yaw="71.424263" roll="0.098604"/>
    <waypoint x="-488.103882" y="317.887024" z="0.001880" pitch="-0.007629" yaw="64.246376" roll="0.097359"/>
    <waypoint x="-478.435272" y="335.800903" z="0.001879" pitch="-0.007445" yaw="58.252831" roll="0.083777"/>
    <waypoint x="-466.606720" y="352.930450" z="0.001871" pitch="-0.006168" yaw="51.457962" roll="0.093273"/>
    <waypoint x="-453.240845" y="368.292114" z="0.001871" pitch="-0.006134" yaw="46.445320" roll="0.055608"/>
    <waypoint x="-438.282074" y="382.648346" z="0.001912" pitch="-0.013244" yaw="40.047279" roll="0.083111"/>
    <waypoint x="-421.874481" y="394.925293" z="0.001904" pitch="-0.011905" yaw="32.722401" roll="0.080868"/>
    <waypoint x="-404.264587" y="404.900391" z="0.001888" pitch="-0.009125" yaw="27.031837" roll="0.037566"/>
    <waypoint x="-385.887543" y="413.166016" z="0.001876" pitch="-0.007267" yaw="20.838923" roll="0.057912"/>
    <waypoint x="-366.640930" y="419.308929" z="0.001867" pitch="-0.005676" yaw="14.492376" roll="0.051670"/>
    <waypoint x="-346.653625" y="423.309509" z="0.001860" pitch="-0.004610" yaw="8.035485" roll="0.050012"/>
    <waypoint x="-326.055054" y="425.106781" z="0.001855" pitch="-0.003757" yaw="2.494284" roll="0.028411"/>
    <waypoint x="-305.341919" y="425.803986" z="0.001780" pitch="0.008982" yaw="1.604549" roll="0.005922"/>
    <waypoint x="-284.837250" y="425.920929" z="0.001788" pitch="0.007616" yaw="-0.366699" roll="0.003869"/>
    <waypoint x="-264.027191" y="425.779419" z="0.001800" pitch="0.005649" yaw="-0.758667" roll="0.009326"/>
    <waypoint x="-243.304245" y="425.568848" z="0.001839" pitch="-0.001072" yaw="-0.103333" roll="-0.011139"/>
    <waypoint x="-222.637177" y="425.378784" z="0.001886" pitch="-0.008975" yaw="-1.035522" roll="0.007640"/>
    <waypoint x="-202.222412" y="424.892609" z="0.002057" pitch="-0.038235" yaw="-1.941986" roll="0.010184"/>
    <waypoint x="-182.180832" y="423.841156" z="0.001863" pitch="-0.005252" yaw="-4.333315" roll="0.014346"/>
    <waypoint x="-162.215851" y="421.432465" z="0.001707" pitch="0.021194" yaw="-9.302688" roll="0.026485"/>
    <waypoint x="-142.009140" y="416.981903" z="0.001727" pitch="0.017834" yaw="-15.747697" roll="0.048416"/>
    <waypoint x="-122.430679" y="410.341522" z="0.001752" pitch="0.013633" yaw="-22.086500" roll="0.060517"/>
    <waypoint x="-103.569626" y="401.499725" z="0.001769" pitch="0.010696" yaw="-28.269371" roll="0.059624"/>
    <waypoint x="-86.087975" y="391.227325" z="0.001782" pitch="0.008456" yaw="-33.079178" roll="0.060820"/>
    <waypoint x="-69.803169" y="379.511871" z="0.001814" pitch="0.003046" yaw="-39.227669" roll="0.085639"/>
    <waypoint x="-54.673225" y="365.883240" z="0.001833" pitch="-0.000123" yaw="-45.003632" roll="0.064438"/>
    <waypoint x="-40.792034" y="350.853821" z="0.001835" pitch="-0.000458" yaw="-50.621964" roll="0.082260"/>
    <waypoint x="-28.509680" y="334.417328" z="0.001836" pitch="-0.000581" yaw="-56.853432" roll="0.088160"/>
    <waypoint x="-18.149933" y="316.654205" z="0.001836" pitch="-0.000581" yaw="-63.240494" roll="0.079128"/>
    <waypoint x="-9.693779" y="297.861847" z="0.001837" pitch="-0.000581" yaw="-68.858040" roll="0.071920"/>
    <waypoint x="-3.077189" y="278.306519" z="0.001837" pitch="-0.000581" yaw="-74.175453" roll="0.065455"/>
    <waypoint x="1.791487" y="258.210144" z="0.001838" pitch="-0.000581" yaw="-79.249924" roll="0.069293"/>
    <waypoint x="4.835360" y="237.814056" z="0.001869" pitch="-0.006072" yaw="-84.272057" roll="0.064906"/>
    <waypoint x="6.071858" y="217.635284" z="0.001866" pitch="-0.005437" yaw="-89.054756" roll="0.054761"/>
    <waypoint x="6.117593" y="196.850021" z="0.001861" pitch="-0.004610" yaw="-90.323395" roll="0.005664"/>
    <waypoint x="5.931453" y="176.412796" z="0.001860" pitch="-0.004426" yaw="-90.596764" roll="0.000493"/>
    <waypoint x="5.678408" y="155.649918" z="0.002055" pitch="-0.037689" yaw="-90.781555" roll="0.000748"/>
    <waypoint x="5.494413" y="135.212601" z="0.001961" pitch="-0.021700" yaw="-90.282661" roll="-0.000610"/>
    <waypoint x="5.455499" y="115.193275" z="0.001854" pitch="-0.003388" yaw="-89.812737" roll="-0.003143"/>
    <waypoint x="5.440289" y="95.104530" z="0.001850" pitch="-0.002869" yaw="-89.797424" roll="-0.008545"/>
    <waypoint x="5.834460" y="74.909012" z="0.001913" pitch="-0.013920" yaw="-87.950798" roll="-0.006653"/>
    <waypoint x="6.742639" y="54.897820" z="0.001654" pitch="0.030353" yaw="-87.754410" roll="0.010629"/>
    <waypoint x="7.349802" y="34.831387" z="0.001690" pitch="0.024165" yaw="-88.036804" roll="-0.009857"/>
    <waypoint x="8.008947" y="14.302588" z="0.001720" pitch="0.018974" yaw="-88.779625" roll="0.016565"/>
    <waypoint x="8.327373" y="-5.969818" z="0.001844" pitch="-0.002111" yaw="-89.507622" roll="0.012936"/>
    <waypoint x="8.100321" y="-26.783098" z="0.001909" pitch="-0.013121" yaw="-91.656258" roll="0.015353"/>
    <waypoint x="7.608615" y="-47.392338" z="0.001898" pitch="-0.011140" yaw="-90.841721" roll="-0.012390"/>
    <waypoint x="7.603158" y="-67.638428" z="0.001908" pitch="-0.012964" yaw="-89.123047" roll="-0.011383"/>
    <waypoint x="7.824538" y="-88.267998" z="0.001871" pitch="-0.006714" yaw="-89.446899" roll="-0.003113"/>
    <waypoint x="8.041238" y="-108.961739" z="0.001863" pitch="-0.005191" yaw="-89.400505" roll="-0.001526"/>
    <waypoint x="8.377845" y="-129.141205" z="0.001857" pitch="-0.004364" yaw="-88.301025" roll="-0.016876"/>
    <waypoint x="9.386849" y="-149.657532" z="0.001844" pitch="-0.002015" yaw="-86.411522" roll="-0.006317"/>
    <waypoint x="10.456738" y="-169.656128" z="0.001755" pitch="0.013114" yaw="-87.916382" roll="0.017995"/>
    <waypoint x="11.000983" y="-190.267792" z="0.001807" pitch="0.004248" yaw="-88.152458" roll="-0.013519"/>
    <waypoint x="11.552621" y="-210.795502" z="0.001839" pitch="-0.001161" yaw="-88.991394" roll="0.003592"/>
    <waypoint x="12.139688" y="-230.836212" z="0.001996" pitch="-0.027888" yaw="-87.023499" roll="-0.026062"/>
    <waypoint x="14.452398" y="-251.273254" z="0.001792" pitch="0.006933" yaw="-78.179405" roll="-0.075684"/>
    <waypoint x="20.678955" y="-270.748566" z="0.001782" pitch="0.008654" yaw="-66.748337" roll="-0.059845"/>
    <waypoint x="29.174017" y="-288.926758" z="0.001793" pitch="0.006735" yaw="-62.377491" roll="-0.044861"/>
    <waypoint x="39.624119" y="-306.551941" z="0.001807" pitch="0.004501" yaw="-54.935867" roll="-0.084290"/>
    <waypoint x="52.553158" y="-322.189758" z="0.001839" pitch="-0.000915" yaw="-45.769852" roll="-0.075745"/>
    <waypoint x="67.695404" y="-335.823273" z="0.001840" pitch="-0.001100" yaw="-38.089516" roll="-0.067932"/>
    <waypoint x="84.594780" y="-347.260193" z="0.001840" pitch="-0.001100" yaw="-29.978827" roll="-0.068573"/>
    <waypoint x="102.959633" y="-356.215179" z="0.001840" pitch="-0.001100" yaw="-22.087049" roll="-0.066406"/>
    <waypoint x="122.384804" y="-362.612427" z="0.001840" pitch="-0.001100" yaw="-14.483146" roll="-0.057251"/>
    <waypoint x="142.487640" y="-366.465881" z="0.001840" pitch="-0.001100" yaw="-7.132362" roll="-0.058716"/>
    <waypoint x="162.926300" y="-367.908936" z="0.001840" pitch="-0.001100" yaw="-1.246155" roll="-0.037598"/>
    <waypoint x="183.442612" y="-367.720825" z="0.001840" pitch="-0.001100" yaw="1.772599" roll="-0.008881"/>
    <waypoint x="203.976700" y="-367.368622" z="0.001846" pitch="-0.002049" yaw="0.410280" roll="0.006125"/>
    <waypoint x="224.157242" y="-367.309448" z="0.001992" pitch="-0.026945" yaw="0.005079" roll="0.002637"/>
    <waypoint x="244.535202" y="-367.465698" z="0.001946" pitch="-0.019043" yaw="-0.088654" roll="-0.013153"/>
    <waypoint x="264.845306" y="-366.953064" z="0.001885" pitch="-0.008545" yaw="3.974244" roll="-0.033752"/>
    <waypoint x="285.088593" y="-363.301544" z="0.001727" pitch="0.018339" yaw="16.281202" roll="-0.067902"/>
    <waypoint x="304.157593" y="-356.221619" z="0.001761" pitch="0.012554" yaw="23.277298" roll="-0.052307"/>
    <waypoint x="322.013885" y="-346.813507" z="0.001796" pitch="0.006680" yaw="31.510708" roll="-0.059326"/>
    <waypoint x="338.552185" y="-334.778595" z="0.001806" pitch="0.004911" yaw="40.166183" roll="-0.062317"/>
    <waypoint x="353.234528" y="-320.634766" z="0.001815" pitch="0.003442" yaw="48.482693" roll="-0.091858"/>
    <waypoint x="365.212769" y="-304.547516" z="0.001820" pitch="0.002636" yaw="58.077362" roll="-0.082550"/>
    <waypoint x="374.913727" y="-286.552643" z="0.001825" pitch="0.001728" yaw="66.685814" roll="-0.107330"/>
    <waypoint x="381.638611" y="-266.942108" z="0.001827" pitch="0.001441" yaw="74.379227" roll="-0.056641"/>
    <waypoint x="385.657715" y="-247.269669" z="0.001831" pitch="0.000861" yaw="83.683769" roll="-0.103210"/>
    <waypoint x="386.748230" y="-227.043762" z="0.001832" pitch="0.000758" yaw="89.589233" roll="-0.044281"/>
    <waypoint x="386.738983" y="-206.624039" z="0.001833" pitch="0.000492" yaw="90.610031" roll="-0.014496"/>
    <waypoint x="386.212952" y="-186.085815" z="0.001835" pitch="0.000260" yaw="91.889748" roll="-0.003143"/>
    <waypoint x="385.638519" y="-165.475159" z="0.001839" pitch="-0.000458" yaw="91.468819" roll="0.001235"/>
    <waypoint x="385.286713" y="-144.838120" z="0.001839" pitch="-0.000458" yaw="90.338081" roll="0.010628"/>
    <waypoint x="385.165649" y="-124.181900" z="0.001840" pitch="-0.000458" yaw="90.164246" roll="0.004953"/>
    <waypoint x="385.170074" y="-103.548065" z="0.001854" pitch="-0.002930" yaw="89.979675" roll="-0.001251"/>
    <waypoint x="385.179352" y="-83.081375" z="0.002238" pitch="-0.068329" yaw="89.966667" roll="-0.000763"/>
    <waypoint x="385.094910" y="-62.728989" z="0.001503" pitch="0.056861" yaw="90.790260" roll="-0.005524"/>
    <waypoint x="384.871857" y="-42.514530" z="0.001806" pitch="0.005328" yaw="90.417236" roll="-0.001892"/>
    <waypoint x="383.751556" y="-22.259592" z="0.001818" pitch="0.003156" yaw="98.632599" roll="-0.045807"/>
    <waypoint x="376.206818" y="-3.471026" z="0.006127" pitch="-0.002111" yaw="126.115150" roll="-0.069214"/>
    <waypoint x="360.739807" y="9.299885" z="0.129845" pitch="1.102160" yaw="152.875931" roll="0.061754"/>
    <waypoint x="340.844421" y="13.788091" z="0.420477" pitch="1.226340" yaw="179.394165" roll="-0.077606"/>
    <waypoint x="320.463654" y="13.538980" z="0.915747" pitch="1.665856" yaw="-179.506378" roll="-0.008514"/>
    <waypoint x="300.365417" y="13.798594" z="1.585752" pitch="2.245186" yaw="179.205124" roll="-0.083282"/>
    <waypoint x="279.681824" y="13.533975" z="2.467730" pitch="2.740408" yaw="-178.039368" roll="0.028002"/>
    <waypoint x="259.087311" y="12.838964" z="3.539301" pitch="3.269331" yaw="-178.578674" roll="0.040964"/>
    <waypoint x="238.779953" y="12.377085" z="4.747238" pitch="3.467748" yaw="-178.876022" roll="0.013549"/>
    <waypoint x="218.250015" y="12.043751" z="5.980267" pitch="3.463684" yaw="-179.444489" roll="-0.013519"/>
    <waypoint x="197.854279" y="11.939838" z="7.178487" pitch="3.181359" yaw="179.910736" roll="-0.047424"/>
    <waypoint x="177.860153" y="11.920398" z="8.205182" pitch="2.731953" yaw="-179.262131" roll="-0.037720"/>
    <waypoint x="157.195404" y="11.524220" z="9.098198" pitch="2.254987" yaw="-178.245148" roll="0.005552"/>
    <waypoint x="136.068909" y="10.865676" z="9.833857" pitch="1.721153" yaw="-178.010330" roll="0.021647"/>
    <waypoint x="115.752380" y="10.256699" z="10.387770" pitch="1.055073" yaw="-178.857315" roll="-0.171173"/>
    <waypoint x="95.486290" y="9.866326" z="10.712064" pitch="0.733330" yaw="-179.130417" roll="-0.031525"/>
    <waypoint x="75.276863" y="10.178728" z="10.964468" pitch="0.182762" yaw="177.176498" roll="0.003200"/>
    <waypoint x="55.091595" y="11.048821" z="10.993018" pitch="0.024288" yaw="178.499832" roll="-0.083984"/>
    <waypoint x="35.048653" y="10.847660" z="10.997787" pitch="0.037081" yaw="-176.383362" roll="-0.087463"/>
    <waypoint x="13.998049" y="9.539960" z="11.001029" pitch="-0.060454" yaw="-178.284760" roll="0.090389"/>
    <waypoint x="-6.584541" y="9.054279" z="10.871359" pitch="-0.778471" yaw="-179.019165" roll="-0.007019"/>
    <waypoint x="-27.221699" y="9.113503" z="10.534268" pitch="-1.002255" yaw="179.088593" roll="-0.000366"/>
    <waypoint x="-47.895786" y="9.417170" z="10.179360" pitch="-0.974272" yaw="179.306915" roll="0.008452"/>
    <waypoint x="-68.562202" y="9.529523" z="9.827150" pitch="-0.954526" yaw="179.741562" roll="0.007500"/>
    <waypoint x="-88.649384" y="9.631951" z="9.469520" pitch="-1.189450" yaw="179.736938" roll="-0.404205"/>
    <waypoint x="-109.590469" y="9.742694" z="9.063873" pitch="-1.147335" yaw="179.578949" roll="-0.046844"/>
    <waypoint x="-129.751007" y="9.915344" z="8.349806" pitch="-2.531036" yaw="179.604401" roll="0.009079"/>
    <waypoint x="-149.773270" y="9.882219" z="7.333983" pitch="-2.968564" yaw="-179.441422" roll="-0.035828"/>
    <waypoint x="-170.316498" y="9.755468" z="6.268944" pitch="-2.969295" yaw="-179.772110" roll="-0.006653"/>
    <waypoint x="-191.247650" y="9.660956" z="5.183875" pitch="-2.970121" yaw="-179.742767" roll="-0.009888"/>
    <waypoint x="-211.376846" y="9.586792" z="4.140378" pitch="-2.970763" yaw="-179.853073" roll="-0.002747"/>
    <waypoint x="-231.747787" y="9.555002" z="3.108995" pitch="-2.702057" yaw="179.969955" roll="0.007986"/>
    <waypoint x="-252.268250" y="9.607410" z="2.207777" pitch="-2.330139" yaw="179.713806" roll="0.017357"/>
    <waypoint x="-272.861023" y="9.731676" z="1.459139" pitch="-1.862449" yaw="179.558365" roll="0.018815"/>
    <waypoint x="-293.337891" y="9.901713" z="0.867031" pitch="-1.444482" yaw="179.514679" roll="0.013346"/>
    <waypoint x="-313.444153" y="10.071879" z="0.436298" pitch="-1.029726" yaw="179.643356" roll="0.002009"/>
    <waypoint x="-333.950378" y="10.127173" z="0.147508" pitch="-0.598721" yaw="-179.834534" roll="-0.010284"/>
    <waypoint x="-354.330750" y="10.081579" z="0.026461" pitch="-0.276459" yaw="179.994659" roll="-0.002655"/>
    <waypoint x="-374.409332" y="10.025089" z="-0.004256" pitch="-0.027464" yaw="-179.864395" roll="0.024902"/>
    <waypoint x="-395.171753" y="9.998717" z="0.001765" pitch="0.016843" yaw="-179.858139" roll="-0.001068"/>
    <waypoint x="-415.364014" y="10.059391" z="0.001829" pitch="0.001667" yaw="179.368729" roll="0.007644"/>
    <waypoint x="-436.013306" y="10.901795" z="0.001983" pitch="-0.024596" yaw="172.886292" roll="0.109875"/>
    <waypoint x="-455.629730" y="15.956541" z="0.001789" pitch="0.008531" yaw="158.501801" roll="0.087402"/>
    <waypoint x="-473.246826" y="25.609121" z="0.001747" pitch="0.015703" yaw="144.396851" roll="0.103151"/>
    <waypoint x="-488.720856" y="39.522980" z="0.001777" pitch="0.010607" yaw="131.199615" roll="0.117834"/>
    <waypoint x="-500.291626" y="56.376396" z="0.001791" pitch="0.008237" yaw="116.850746" roll="0.144144"/>
    <waypoint x="-507.453217" y="75.493317" z="0.001807" pitch="0.005512" yaw="103.140831" roll="0.151283"/>
    <waypoint x="-509.922028" y="95.368370" z="0.001815" pitch="0.004105" yaw="90.540085" roll="0.124676"/>
    <waypoint x="-509.961151" y="115.741226" z="0.001850" pitch="-0.001769" yaw="91.285812" roll="-0.039520"/>
    <waypoint x="-510.543060" y="135.852081" z="0.001870" pitch="-0.005280" yaw="91.233376" roll="0.009079"/>
    <waypoint x="-510.912384" y="156.378876" z="0.001867" pitch="-0.004795" yaw="90.378731" roll="0.018083"/>
    <waypoint x="-510.788818" y="176.455093" z="0.001861" pitch="-0.004030" yaw="89.473633" roll="-0.003693"/>
    <waypoint x="-510.873779" y="197.024338" z="0.001857" pitch="-0.003299" yaw="90.683289" roll="-0.002350"/>
    <waypoint x="-511.055573" y="217.295425" z="0.001853" pitch="-0.002623" yaw="90.519409" roll="-0.001343"/>
    <waypoint x="-511.083649" y="237.338593" z="0.001850" pitch="-0.002015" yaw="89.452705" roll="0.013254"/>
    <waypoint x="-510.283783" y="258.008850" z="0.001849" pitch="-0.002015" yaw="85.172623" roll="0.054032"/>
    <waypoint x="-507.483978" y="278.342010" z="0.001847" pitch="-0.001892" yaw="79.035507" roll="0.058816"/>
    <waypoint x="-502.358612" y="298.084656" z="0.001845" pitch="-0.001830" yaw="71.867973" roll="0.056107"/>
    <waypoint x="-495.239258" y="317.113495" z="0.001846" pitch="-0.002049" yaw="67.452614" roll="0.033082"/>
    <waypoint x="-486.599792" y="335.378540" z="0.001847" pitch="-0.002350" yaw="61.257797" roll="0.061041"/>
    <waypoint x="-475.785370" y="352.298279" z="0.001845" pitch="-0.002199" yaw="53.211182" roll="0.066910"/>
    <waypoint x="-463.201996" y="367.856018" z="0.001844" pitch="-0.002015" yaw="48.659393" roll="0.044611"/>
    <waypoint x="-448.529999" y="382.506439" z="0.001843" pitch="-0.002015" yaw="41.682751" roll="0.043885"/>
    <waypoint x="-432.318207" y="395.350525" z="0.001842" pitch="-0.002015" yaw="34.895142" roll="0.050153"/>
    <waypoint x="-414.854675" y="406.380005" z="0.001842" pitch="-0.002015" yaw="29.543825" roll="0.049360"/>
    <waypoint x="-396.435852" y="415.673065" z="0.001842" pitch="-0.002015" yaw="24.101366" roll="0.043166"/>
    <waypoint x="-377.233337" y="423.160278" z="0.001842" pitch="-0.002015" yaw="18.170279" roll="0.054178"/>
    <waypoint x="-357.315918" y="428.351166" z="0.001845" pitch="-0.002507" yaw="11.021365" roll="0.057952"/>
    <waypoint x="-337.017700" y="431.374756" z="0.001844" pitch="-0.002507" yaw="5.963740" roll="0.041009"/>
    <waypoint x="-316.594666" y="432.584595" z="0.001843" pitch="-0.002507" yaw="0.870938" roll="0.035527"/>
    <waypoint x="-296.171387" y="432.780060" z="0.001842" pitch="-0.002507" yaw="1.032627" roll="-0.009949"/>
    <waypoint x="-275.775543" y="432.930237" z="0.001842" pitch="-0.002507" yaw="-0.140411" roll="0.004454"/>
    <waypoint x="-255.399216" y="432.806427" z="0.001842" pitch="-0.002507" yaw="-0.814362" roll="0.008855"/>